README for v11-01g run directory with iodine chemistry
26 Sep 2016
Sebastian D. Eastham
seastham@fas.harvard.edu

This is a run directory intended for use with the GEOS-Chem v11-01g iodine simulation.
It is under active development by Tomas Sherwen, Johan Schmidt and Sebastian Eastham,
and is not yet intended or suitable for use in scientific applications.
